!-Generator IDFEditor 1.47
!-Option SortedOrder
!-NOTE: All comments with '!-' are ignored by the IDFEditor and are generated automatically.
!-      Use '!' comments if they need to be retained when using the IDFEditor.
!-   ===========  ALL OBJECTS IN CLASS: VERSION ===========

  Version,9.0;

!-   ===========  ALL OBJECTS IN CLASS: SIMULATIONCONTROL ===========

  SimulationControl,
    No,                      !- Do Zone Sizing Calculation
    No,                      !- Do System Sizing Calculation
    No,                      !- Do Plant Sizing Calculation
    Yes,                     !- Run Simulation for Sizing Periods
    Yes;                     !- Run Simulation for Weather File Run Periods

!-   ===========  ALL OBJECTS IN CLASS: BUILDING ===========

  Building,
    Pesq_fachada,            !- Name
    45,                     !- North Axis {deg}
    Suburbs,                 !- Terrain
    0.04,                    !- Loads Convergence Tolerance Value
    0.4,                     !- Temperature Convergence Tolerance Value {deltaC}
    FullExterior,            !- Solar Distribution
    25,                      !- Maximum Number of Warmup Days
    ;                        !- Minimum Number of Warmup Days

!-   ===========  ALL OBJECTS IN CLASS: TIMESTEP ===========

  Timestep,6;

!-   ===========  ALL OBJECTS IN CLASS: SITE:LOCATION ===========

  Site:Location,
    VICOSA,                  !- Name
    -20.45,                  !- Latitude {deg}
    -42.52,                  !- Longitude {deg}
    -3.0,                    !- Time Zone {hr}
    650;                     !- Elevation {m}

!-   ===========  ALL OBJECTS IN CLASS: RUNPERIOD ===========

  RunPeriod,
    Ano Completo,            !- Name
    1,                       !- Begin Month
    1,                       !- Begin Day of Month
    ,                        !- Begin Year
    12,                      !- End Month
    31,                      !- End Day of Month
    ,                        !- End Year
    ,                        !- Day of Week for Start Day
    No,                      !- Use Weather File Holidays and Special Days
    No,                      !- Use Weather File Daylight Saving Period
    No,                      !- Apply Weekend Holiday Rule
    No,                      !- Use Weather File Rain Indicators
    No,                      !- Use Weather File Snow Indicators
    ;                        !- Treat Weather as Actual

!-   ===========  ALL OBJECTS IN CLASS: RUNPERIODCONTROL:DAYLIGHTSAVINGTIME ===========
! Daylight Saving Period in US

  RunPeriodControl:DaylightSavingTime,
    2nd Sunday in March,     !- Start Date
    1st Sunday in November;  !- End Date

!-   ===========  ALL OBJECTS IN CLASS: SITE:GROUNDTEMPERATURE:BUILDINGSURFACE ===========

  Site:GroundTemperature:BuildingSurface,21.81,21.89,21.87,21.76,21.51,21.36,21.26,21.43,21.51,21.62,21.76,21.78;

!-   ===========  ALL OBJECTS IN CLASS: SCHEDULETYPELIMITS ===========

  ScheduleTypeLimits,
    Any Number;              !- Name

  ScheduleTypeLimits,
    Fraction,                !- Name
    0.0,                     !- Lower Limit Value
    1.0,                     !- Upper Limit Value
    CONTINUOUS;              !- Numeric Type

  ScheduleTypeLimits,
    Temperature,             !- Name
    -60,                     !- Lower Limit Value
    200,                     !- Upper Limit Value
    CONTINUOUS;              !- Numeric Type

  ScheduleTypeLimits,
    On/Off,                  !- Name
    0,                       !- Lower Limit Value
    1,                       !- Upper Limit Value
    DISCRETE;                !- Numeric Type

  ScheduleTypeLimits,
    Control Type,            !- Name
    0,                       !- Lower Limit Value
    4,                       !- Upper Limit Value
    DISCRETE;                !- Numeric Type

  ScheduleTypeLimits,
    Humidity,                !- Name
    10,                      !- Lower Limit Value
    90,                      !- Upper Limit Value
    CONTINUOUS;              !- Numeric Type

  ScheduleTypeLimits,
    Taxas_metabolicas,       !- Name
    50,                      !- Lower Limit Value
    500,                     !- Upper Limit Value
    Continuous,              !- Numeric Type
    Dimensionless;           !- Unit Type

!-   ===========  ALL OBJECTS IN CLASS: SCHEDULE:COMPACT ===========

  Schedule:Compact,
    Always On,               !- Name
    Fraction,                !- Schedule Type Limits Name
    Through: 12/31,          !- Field 1
    For: AllDays,            !- Field 2
    Until: 24:00,1.0;        !- Field 3

  Schedule:Compact,
    Always Off,              !- Name
    Fraction,                !- Schedule Type Limits Name
    Through: 12/31,          !- Field 1
    For: AllDays,            !- Field 2
    Until: 24:00,0.0;        !- Field 3

  Schedule:Compact,
    Ocupacao,                !- Name
    Fraction,                !- Schedule Type Limits Name
    Through: 12/31,          !- Field 1
    For: AllDays,            !- Field 2
    Until: 07:00,0,          !- Field 3
    Until: 8:00,.5,          !- Field 5
    Until: 12:00,1,          !- Field 7
    Until: 14:00,.5,         !- Field 9
    Until: 18:00,1,          !- Field 11
    Until: 19:00,.5,         !- Field 13
    Until: 24:00,0,          !- Field 15
    For: Allotherdays,       !- Field 17
    Until: 24:00,0;          !- Field 18

  Schedule:Compact,
    metabolismo_esc,         !- Name
    Taxas_metabolicas,       !- Schedule Type Limits Name
    Through: 12/31,          !- Field 1
    For: AllDays,            !- Field 2
    Until: 24:00,130;        !- Field 3

  Schedule:Compact,
    Ocupacao_Ex,             !- Name
    Fraction,                !- Schedule Type Limits Name
    Through: 12/31,          !- Field 1
    For: AllDays,            !- Field 2
    Until: 08:00,0,          !- Field 3
    Until: 09:00,.3,         !- Field 5
    Until: 12:00,1,          !- Field 7
    Until: 24:00,0,          !- Field 9
    For: Allotherdays,       !- Field 11
    Until: 24:00,0;          !- Field 12

  Schedule:Compact,
    Ilum_Total,              !- Name
    Fraction,                !- Schedule Type Limits Name
    Through: 12/31,          !- Field 1
    For: Weekdays,           !- Field 2
    Until: 08:00,0,          !- Field 3
    Until: 18:00,1,          !- Field 5
    Until: 24:00,0,          !- Field 7
    For: Allotherdays,       !- Field 9
    Until: 24:00,0;          !- Field 10

  Schedule:Compact,
    Equip_esc,               !- Name
    Fraction,                !- Schedule Type Limits Name
    Through: 12/31,          !- Field 1
    For: Weekdays,           !- Field 2
    Until: 08:00,0,          !- Field 3
    Until: 09:00,.5,         !- Field 5
    Until: 18:00,1,          !- Field 7
    Until: 24:00,0,          !- Field 9
    For: Allotherdays,       !- Field 11
    Until: 24:00,0;          !- Field 12

  Schedule:Compact,
    AberturaJanelas,         !- Name
    Temperature,             !- Schedule Type Limits Name
    Through: 12/31,          !- Field 1
    For: AllDays,            !- Field 2
    Until: 24:00,20;         !- Field 3

!-   ===========  ALL OBJECTS IN CLASS: MATERIAL ===========

  Material,
    Alvenaria_1_5_Argamassa, !- Name
    Smooth,                  !- Roughness
    0.025,                   !- Thickness {m}
    1.15,                    !- Conductivity {W/m-K}
    2000,                    !- Density {kg/m3}
    1000,                    !- Specific Heat {J/kg-K}
    0.9,                     !- Thermal Absorptance
    0.2,                     !- Solar Absorptance
    0.7;                     !- Visible Absorptance

  Material,
    Alvenaria_2_4_Tijolo,    !- Name
    Rough,                   !- Roughness
    0.09,                    !- Thickness {m}
    0.9,                     !- Conductivity {W/m-K}
    1700,                    !- Density {kg/m3}
    920,                     !- Specific Heat {J/kg-K}
    0.9,                     !- Thermal Absorptance
    0.7,                     !- Solar Absorptance
    0.7;                     !- Visible Absorptance

  Material,
    Alvenaria_3_Isolante,    !- Name
    MediumSmooth,            !- Roughness
    0.04,                    !- Thickness {m}
    0.035,                   !- Conductivity {W/m-K}
    130,                     !- Density {kg/m3}
    100,                     !- Specific Heat {J/kg-K}
    0.9,                     !- Thermal Absorptance
    0.7,                     !- Solar Absorptance
    0.7;                     !- Visible Absorptance

  Material,
    Cobertura_1_Cascalho,    !- Name
    VeryRough,               !- Roughness
    0.01,                    !- Thickness {m}
    0.96,                    !- Conductivity {W/m-K}
    1800,                    !- Density {kg/m3}
    1000,                    !- Specific Heat {J/kg-K}
    0.9,                     !- Thermal Absorptance
    0.5,                     !- Solar Absorptance
    0.7;                     !- Visible Absorptance

  Material,
    Cobertura_2_Impermeabilizante,  !- Name
    Rough,                   !- Roughness
    0.005,                   !- Thickness {m}
    0.5,                     !- Conductivity {W/m-K}
    1700,                    !- Density {kg/m3}
    1000,                    !- Specific Heat {J/kg-K}
    0.9,                     !- Thermal Absorptance
    0.7,                     !- Solar Absorptance
    0.7;                     !- Visible Absorptance

  Material,
    Cobertura_3_Concreto,    !- Name
    MediumRough,             !- Roughness
    0.5,                     !- Thickness {m}
    1.13,                    !- Conductivity {W/m-K}
    2000,                    !- Density {kg/m3}
    1000,                    !- Specific Heat {J/kg-K}
    0.9,                     !- Thermal Absorptance
    0.2,                     !- Solar Absorptance
    0.7;                     !- Visible Absorptance

  Material,
    Laje_1_concreto,         !- Name
    MediumSmooth,            !- Roughness
    0.13,                    !- Thickness {m}
    1.4,                     !- Conductivity {W/m-K}
    2100,                    !- Density {kg/m3}
    840,                     !- Specific Heat {J/kg-K}
    0.9,                     !- Thermal Absorptance
    0.2,                     !- Solar Absorptance
    0.7;                     !- Visible Absorptance

  Material,
    Piso_1_Argila,           !- Name
    Rough,                   !- Roughness
    0.75,                    !- Thickness {m}
    1.41,                    !- Conductivity {W/m-K}
    1900,                    !- Density {kg/m3}
    1000,                    !- Specific Heat {J/kg-K}
    0.9,                     !- Thermal Absorptance
    0.7,                     !- Solar Absorptance
    0.7;                     !- Visible Absorptance

  Material,
    Piso_2_Alvenaria,        !- Name
    VeryRough,               !- Roughness
    0.25,                    !- Thickness {m}
    0.84,                    !- Conductivity {W/m-K}
    1700,                    !- Density {kg/m3}
    800,                     !- Specific Heat {J/kg-K}
    0.9,                     !- Thermal Absorptance
    0.7,                     !- Solar Absorptance
    0.7;                     !- Visible Absorptance

  Material,
    Piso_3_Concreto,         !- Name
    Rough,                   !- Roughness
    1,                       !- Thickness {m}
    1.13,                    !- Conductivity {W/m-K}
    2000,                    !- Density {kg/m3}
    1000,                    !- Specific Heat {J/kg-K}
    0.9,                     !- Thermal Absorptance
    0.7,                     !- Solar Absorptance
    0.7;                     !- Visible Absorptance

  Material,
    Piso_4_Isolante,         !- Name
    MediumRough,             !- Roughness
    0.5,                     !- Thickness {m}
    0.025,                   !- Conductivity {W/m-K}
    30,                      !- Density {kg/m3}
    8000,                    !- Specific Heat {J/kg-K}
    0.9,                     !- Thermal Absorptance
    0.7,                     !- Solar Absorptance
    0.7;                     !- Visible Absorptance

  Material,
    Piso_5_Aglomerado,       !- Name
    MediumRough,             !- Roughness
    0.5,                     !- Thickness {m}
    0.15,                    !- Conductivity {W/m-K}
    800,                     !- Density {kg/m3}
    160,                     !- Specific Heat {J/kg-K}
    0.9,                     !- Thermal Absorptance
    0.7,                     !- Solar Absorptance
    0.7;                     !- Visible Absorptance

  Material,
    Piso_6_Revestimento,     !- Name
    Smooth,                  !- Roughness
    0.1,                     !- Thickness {m}
    0.1,                     !- Conductivity {W/m-K}
    0.1,                     !- Density {kg/m3}
    700,                     !- Specific Heat {J/kg-K}
    0.9,                     !- Thermal Absorptance
    0.7,                     !- Solar Absorptance
    0.7;                     !- Visible Absorptance

  Material,
    CHAPA METALICA,          !- Name
    VerySmooth,              !- Roughness
    0.005,                   !- Thickness {m}
    230,                     !- Conductivity {W/m-K}
    2700,                    !- Density {kg/m3}
    460,                     !- Specific Heat {J/kg-K}
    0.15,                    !- Thermal Absorptance
    0.7,                     !- Solar Absorptance
    0.7;                     !- Visible Absorptance

!-   ===========  ALL OBJECTS IN CLASS: MATERIAL:AIRGAP ===========

  Material:AirGap,
    Ar1,                     !- Name
    0.14;                    !- Thermal Resistance {m2-K/W}

  Material:AirGap,
    Ar2,                     !- Name
    0.61;                    !- Thermal Resistance {m2-K/W}

!-   ===========  ALL OBJECTS IN CLASS: WINDOWMATERIAL:GLAZING ===========

  WindowMaterial:Glazing,
    Clear 3mm,               !- Name
    SpectralAverage,         !- Optical Data Type
    ,                        !- Window Glass Spectral Data Set Name
    0.012,                   !- Thickness {m}
    0.837,                   !- Solar Transmittance at Normal Incidence
    0.075,                   !- Front Side Solar Reflectance at Normal Incidence
    0.075,                   !- Back Side Solar Reflectance at Normal Incidence
    0.898,                   !- Visible Transmittance at Normal Incidence
    0.081,                   !- Front Side Visible Reflectance at Normal Incidence
    0.081,                   !- Back Side Visible Reflectance at Normal Incidence
    0,                       !- Infrared Transmittance at Normal Incidence
    0.84,                    !- Front Side Infrared Hemispherical Emissivity
    0.84,                    !- Back Side Infrared Hemispherical Emissivity
    0.9;                     !- Conductivity {W/m-K}

!-   ===========  ALL OBJECTS IN CLASS: WINDOWMATERIAL:GAS ===========

  WindowMaterial:Gas,
    Air 13mm,                !- Name
    Air,                     !- Gas Type
    0.0127;                  !- Thickness {m}

!-   ===========  ALL OBJECTS IN CLASS: CONSTRUCTION ===========

  Construction,
    Alvenaria,               !- Name
    Alvenaria_1_5_Argamassa, !- Outside Layer
    Alvenaria_2_4_Tijolo,    !- Layer 2
    Alvenaria_3_Isolante,    !- Layer 3
    Alvenaria_2_4_Tijolo,    !- Layer 4
    Alvenaria_1_5_Argamassa; !- Layer 5

  Construction,
    Cobertura,               !- Name
    Cobertura_1_Cascalho,    !- Outside Layer
    Cobertura_2_Impermeabilizante,  !- Layer 2
    Cobertura_3_Concreto;    !- Layer 3

  Construction,
    Laje,                    !- Name
    Laje_1_concreto;         !- Outside Layer

  Construction,
    Vidro 6mm,               !- Name
    Clear 3mm;               !- Outside Layer

  Construction,
    CHAPA,                   !- Name
    Alvenaria_2_4_Tijolo;    !- Outside Layer

!-   ===========  ALL OBJECTS IN CLASS: GLOBALGEOMETRYRULES ===========

  GlobalGeometryRules,
    UpperLeftCorner,         !- Starting Vertex Position
    Counterclockwise,        !- Vertex Entry Direction
    Relative;                !- Coordinate System

!-   ===========  ALL OBJECTS IN CLASS: ZONE ===========

  Zone,
    PAV1_Z1,                 !- Name
    0.0,                     !- Direction of Relative North {deg}
    0.0,                     !- X Origin {m}
    0.0,                     !- Y Origin {m}
    0.0,                     !- Z Origin {m}
    ,                        !- Type
    1;                       !- Multiplier

  Zone,
    PAV1_ZLAT2,              !- Name
    0.0,                     !- Direction of Relative North {deg}
    39.0,                    !- X Origin {m}
    0.0,                     !- Y Origin {m}
    0.0,                     !- Z Origin {m}
    ,                        !- Type
    1;                       !- Multiplier

  Zone,
    PAV1_ZLAT1,              !- Name
    0.0,                     !- Direction of Relative North {deg}
    0.0,                     !- X Origin {m}
    0.0,                     !- Y Origin {m}
    0.0,                     !- Z Origin {m}
    ,                        !- Type
    1;                       !- Multiplier

  Zone,
    PAV2_ZLAT1,              !- Name
    0.0,                     !- Direction of Relative North {deg}
    -3.0,                    !- X Origin {m}
    0.0,                     !- Y Origin {m}
    3.5,                     !- Z Origin {m}
    ,                        !- Type
    1;                       !- Multiplier

  Zone,
    PAV2_Z1,                 !- Name
    0.0,                     !- Direction of Relative North {deg}
    0.0,                     !- X Origin {m}
    0.0,                     !- Y Origin {m}
    3.5,                     !- Z Origin {m}
    ,                        !- Type
    1;                       !- Multiplier

  Zone,
    PAV2_ZLAT2,              !- Name
    0.0,                     !- Direction of Relative North {deg}
    39.0,                    !- X Origin {m}
    0.0,                     !- Y Origin {m}
    3.5,                     !- Z Origin {m}
    ,                        !- Type
    1;                       !- Multiplier

  Zone,
    PAV3_ZLAT1,              !- Name
    0.0,                     !- Direction of Relative North {deg}
    -3.0,                    !- X Origin {m}
    0.0,                     !- Y Origin {m}
    7.0,                     !- Z Origin {m}
    ,                        !- Type
    1;                       !- Multiplier

  Zone,
    PAV3_Z1,                 !- Name
    0.0,                     !- Direction of Relative North {deg}
    0.0,                     !- X Origin {m}
    0.0,                     !- Y Origin {m}
    7.0,                     !- Z Origin {m}
    ,                        !- Type
    1;                       !- Multiplier

  Zone,
    PAV3_ZLAT2,              !- Name
    0.0,                     !- Direction of Relative North {deg}
    39.0,                    !- X Origin {m}
    0.0,                     !- Y Origin {m}
    7.0,                     !- Z Origin {m}
    ,                        !- Type
    1;                       !- Multiplier

  Zone,
    PAV4_ZLAT1,              !- Name
    0.0,                     !- Direction of Relative North {deg}
    -3.0,                    !- X Origin {m}
    0.0,                     !- Y Origin {m}
    10.5,                    !- Z Origin {m}
    ,                        !- Type
    1;                       !- Multiplier

  Zone,
    PAV4_Z1,                 !- Name
    0.0,                     !- Direction of Relative North {deg}
    0.0,                     !- X Origin {m}
    0.0,                     !- Y Origin {m}
    10.5,                    !- Z Origin {m}
    ,                        !- Type
    1;                       !- Multiplier

  Zone,
    PAV4_ZLAT2,              !- Name
    0.0,                     !- Direction of Relative North {deg}
    39.0,                    !- X Origin {m}
    0.0,                     !- Y Origin {m}
    10.5,                    !- Z Origin {m}
    ,                        !- Type
    1;                       !- Multiplier

  Zone,
    PAV5_ZLAT1,              !- Name
    0.0,                     !- Direction of Relative North {deg}
    -3.0,                    !- X Origin {m}
    0.0,                     !- Y Origin {m}
    14.0,                    !- Z Origin {m}
    ,                        !- Type
    1;                       !- Multiplier

  Zone,
    PAV5_Z1,                 !- Name
    0.0,                     !- Direction of Relative North {deg}
    0.0,                     !- X Origin {m}
    0.0,                     !- Y Origin {m}
    14.0,                    !- Z Origin {m}
    ,                        !- Type
    1;                       !- Multiplier

  Zone,
    PAV5_ZLAT2,              !- Name
    0.0,                     !- Direction of Relative North {deg}
    39.0,                    !- X Origin {m}
    0.0,                     !- Y Origin {m}
    14.0,                    !- Z Origin {m}
    ,                        !- Type
    1;                       !- Multiplier

  Zone,
    PAV6_ZLAT1,              !- Name
    0.0,                     !- Direction of Relative North {deg}
    -3.0,                    !- X Origin {m}
    0.0,                     !- Y Origin {m}
    17.5,                    !- Z Origin {m}
    ,                        !- Type
    1;                       !- Multiplier

  Zone,
    PAV6_Z1,                 !- Name
    0.0,                     !- Direction of Relative North {deg}
    0.0,                     !- X Origin {m}
    0.0,                     !- Y Origin {m}
    17.5,                    !- Z Origin {m}
    ,                        !- Type
    1;                       !- Multiplier

  Zone,
    PAV6_ZLAT2,              !- Name
    0.0,                     !- Direction of Relative North {deg}
    39.0,                    !- X Origin {m}
    0.0,                     !- Y Origin {m}
    17.5,                    !- Z Origin {m}
    ,                        !- Type
    1;                       !- Multiplier

  Zone,
    PAV7_ZLAT1,              !- Name
    0.0,                     !- Direction of Relative North {deg}
    -3.0,                    !- X Origin {m}
    0.0,                     !- Y Origin {m}
    21.0,                    !- Z Origin {m}
    ,                        !- Type
    1;                       !- Multiplier

  Zone,
    PAV7_Z1,                 !- Name
    0.0,                     !- Direction of Relative North {deg}
    0.0,                     !- X Origin {m}
    0.0,                     !- Y Origin {m}
    21.0,                    !- Z Origin {m}
    ,                        !- Type
    1;                       !- Multiplier

  Zone,
    PAV7_ZLAT2,              !- Name
    0.0,                     !- Direction of Relative North {deg}
    39.0,                    !- X Origin {m}
    0.0,                     !- Y Origin {m}
    21.0,                    !- Z Origin {m}
    ,                        !- Type
    1;                       !- Multiplier

  Zone,
    PAV8_ZLAT1,              !- Name
    0.0,                     !- Direction of Relative North {deg}
    -3.0,                    !- X Origin {m}
    0.0,                     !- Y Origin {m}
    24.5,                    !- Z Origin {m}
    ,                        !- Type
    1;                       !- Multiplier

  Zone,
    PAV8_Z1,                 !- Name
    0.0,                     !- Direction of Relative North {deg}
    0.0,                     !- X Origin {m}
    0.0,                     !- Y Origin {m}
    24.5,                    !- Z Origin {m}
    ,                        !- Type
    1;                       !- Multiplier

  Zone,
    PAV8_ZLAT2,              !- Name
    0.0,                     !- Direction of Relative North {deg}
    39.0,                    !- X Origin {m}
    0.0,                     !- Y Origin {m}
    24.5,                    !- Z Origin {m}
    ,                        !- Type
    1;                       !- Multiplier

  Zone,
    PAV9_ZLAT2,              !- Name
    0.0,                     !- Direction of Relative North {deg}
    42.0,                    !- X Origin {m}
    16.0,                    !- Y Origin {m}
    28.0,                    !- Z Origin {m}
    ,                        !- Type
    1;                       !- Multiplier

  Zone,
    PAV9_Z1,                 !- Name
    0.0,                     !- Direction of Relative North {deg}
    39.0,                    !- X Origin {m}
    16.0,                    !- Y Origin {m}
    28.0,                    !- Z Origin {m}
    ,                        !- Type
    1;                       !- Multiplier

  Zone,
    PAV9_ZLAT1,              !- Name
    0.0,                     !- Direction of Relative North {deg}
    0.0,                     !- X Origin {m}
    16.0,                    !- Y Origin {m}
    28.0,                    !- Z Origin {m}
    ,                        !- Type
    1;                       !- Multiplier

  Zone,
    PAV10_ZLAT1,             !- Name
    0.0,                     !- Direction of Relative North {deg}
    -3.0,                    !- X Origin {m}
    0.0,                     !- Y Origin {m}
    31.5,                    !- Z Origin {m}
    ,                        !- Type
    1;                       !- Multiplier

  Zone,
    PAV10_Z1,                !- Name
    0.0,                     !- Direction of Relative North {deg}
    0.0,                     !- X Origin {m}
    0.0,                     !- Y Origin {m}
    31.5,                    !- Z Origin {m}
    ,                        !- Type
    1;                       !- Multiplier

  Zone,
    PAV10_ZLAT2,             !- Name
    0.0,                     !- Direction of Relative North {deg}
    39.0,                    !- X Origin {m}
    0.0,                     !- Y Origin {m}
    31.5,                    !- Z Origin {m}
    ,                        !- Type
    1;                       !- Multiplier

  Zone,
    PAV11_ZLAT1,             !- Name
    0.0,                     !- Direction of Relative North {deg}
    -3.0,                    !- X Origin {m}
    0.0,                     !- Y Origin {m}
    35.0,                    !- Z Origin {m}
    ,                        !- Type
    1;                       !- Multiplier

  Zone,
    PAV11_Z1,                !- Name
    0.0,                     !- Direction of Relative North {deg}
    0.0,                     !- X Origin {m}
    0.0,                     !- Y Origin {m}
    35.0,                    !- Z Origin {m}
    ,                        !- Type
    1;                       !- Multiplier

  Zone,
    PAV11_ZLAT2,             !- Name
    0.0,                     !- Direction of Relative North {deg}
    39.0,                    !- X Origin {m}
    0.0,                     !- Y Origin {m}
    35.0,                    !- Z Origin {m}
    ,                        !- Type
    1;                       !- Multiplier

  Zone,
    PAV2_FD,                 !- Name
    0.0,                     !- Direction of Relative North {deg}
    0.0,                     !- X Origin {m}
    0.0,                     !- Y Origin {m}
    3.5,                     !- Z Origin {m}
    ,                        !- Type
    1;                       !- Multiplier

  Zone,
    PAV3_FD,                 !- Name
    0.0,                     !- Direction of Relative North {deg}
    0.0,                     !- X Origin {m}
    0.0,                     !- Y Origin {m}
    7.0,                     !- Z Origin {m}
    ,                        !- Type
    1;                       !- Multiplier

  Zone,
    PAV4_FD,                 !- Name
    0.0,                     !- Direction of Relative North {deg}
    0.0,                     !- X Origin {m}
    0.0,                     !- Y Origin {m}
    10.5,                    !- Z Origin {m}
    ,                        !- Type
    1;                       !- Multiplier

  Zone,
    PAV5_FD,                 !- Name
    0.0,                     !- Direction of Relative North {deg}
    0.0,                     !- X Origin {m}
    0.0,                     !- Y Origin {m}
    14.0,                    !- Z Origin {m}
    ,                        !- Type
    1;                       !- Multiplier

  Zone,
    PAV6_FD,                 !- Name
    0.0,                     !- Direction of Relative North {deg}
    0.0,                     !- X Origin {m}
    0.0,                     !- Y Origin {m}
    17.5,                    !- Z Origin {m}
    ,                        !- Type
    1;                       !- Multiplier

  Zone,
    PAV7_FD,                 !- Name
    0.0,                     !- Direction of Relative North {deg}
    0.0,                     !- X Origin {m}
    0.0,                     !- Y Origin {m}
    21.0,                    !- Z Origin {m}
    ,                        !- Type
    1;                       !- Multiplier

  Zone,
    PAV8_FD,                 !- Name
    0.0,                     !- Direction of Relative North {deg}
    0.0,                     !- X Origin {m}
    0.0,                     !- Y Origin {m}
    24.5,                    !- Z Origin {m}
    ,                        !- Type
    1;                       !- Multiplier

  Zone,
    PAV9_FD,                 !- Name
    0.0,                     !- Direction of Relative North {deg}
    0.0,                     !- X Origin {m}
    0.0,                     !- Y Origin {m}
    28.0,                    !- Z Origin {m}
    ,                        !- Type
    1;                       !- Multiplier

  Zone,
    PAV10_FD,                !- Name
    0.0,                     !- Direction of Relative North {deg}
    0.0,                     !- X Origin {m}
    0.0,                     !- Y Origin {m}
    31.5,                    !- Z Origin {m}
    ,                        !- Type
    1;                       !- Multiplier

  Zone,
    PAV11_FD,                !- Name